<routes>
    <trip id="v0.0" type="car" depart="0" from="principalin" to="road0">
        <stop parkingArea="ParkArea0" duration="1000"/>
    </trip>
    <trip id="v-0.0" type="car" depart="0" from="principalin" to="-road0">
        <stop parkingArea="ParkArea-0" duration="1000"/>
    </trip>
    <trip id="v1.0" type="car" depart="0" from="principalin" to="road1">
        <stop parkingArea="ParkArea1" duration="1000"/>
    </trip>
    <trip id="v-1.0" type="car" depart="0" from="principalin" to="-road1">
        <stop parkingArea="ParkArea-1" duration="1000"/>
    </trip>
    <trip id="v2.0" type="car" depart="0" from="principalin" to="road2">
        <stop parkingArea="ParkArea2" duration="1000"/>
    </trip>
    <trip id="v-2.0" type="car" depart="0" from="principalin" to="-road2">
        <stop parkingArea="ParkArea-2" duration="1000"/>
    </trip>
    <trip id="v3.0" type="car" depart="0" from="principalin" to="road3">
        <stop parkingArea="ParkArea3" duration="1000"/>
    </trip>
    <trip id="v-3.0" type="car" depart="0" from="principalin" to="-road3">
        <stop parkingArea="ParkArea-3" duration="1000"/>
    </trip>
    <trip id="v4.0" type="car" depart="0" from="principalin" to="road4">
        <stop parkingArea="ParkArea4" duration="1000"/>
    </trip>
    <trip id="v-4.0" type="car" depart="0" from="principalin" to="-road4">
        <stop parkingArea="ParkArea-4" duration="1000"/>
    </trip>
    <trip id="v5.0" type="car" depart="0" from="principalin" to="road5">
        <stop parkingArea="ParkArea5" duration="1000"/>
    </trip>
    <trip id="v-5.0" type="car" depart="0" from="principalin" to="-road5">
        <stop parkingArea="ParkArea-5" duration="1000"/>
    </trip>
    <trip id="v6.0" type="car" depart="0" from="principalin" to="road6">
        <stop parkingArea="ParkArea6" duration="1000"/>
    </trip>
    <trip id="v-6.0" type="car" depart="0" from="principalin" to="-road6">
        <stop parkingArea="ParkArea-6" duration="1000"/>
    </trip>
    <trip id="v7.0" type="car" depart="0" from="principalin" to="road7">
        <stop parkingArea="ParkArea7" duration="1000"/>
    </trip>
    <trip id="v-7.0" type="car" depart="0" from="principalin" to="-road7">
        <stop parkingArea="ParkArea-7" duration="1000"/>
    </trip>
    <trip id="v8.0" type="car" depart="0" from="principalin" to="road8">
        <stop parkingArea="ParkArea8" duration="1000"/>
    </trip>
    <trip id="v-8.0" type="car" depart="0" from="principalin" to="-road8">
        <stop parkingArea="ParkArea-8" duration="1000"/>
    </trip>
    <trip id="v9.0" type="car" depart="0" from="principalin" to="road9">
        <stop parkingArea="ParkArea9" duration="1000"/>
    </trip>
    <trip id="v-9.0" type="car" depart="0" from="principalin" to="-road9">
        <stop parkingArea="ParkArea-9" duration="1000"/>
    </trip>
    <trip id="v10.0" type="car" depart="0" from="principalin" to="road10">
        <stop parkingArea="ParkArea10" duration="1000"/>
    </trip>
    <trip id="v-10.0" type="car" depart="0" from="principalin" to="-road10">
        <stop parkingArea="ParkArea-10" duration="1000"/>
    </trip>
    <trip id="v11.0" type="car" depart="0" from="principalin" to="road11">
        <stop parkingArea="ParkArea11" duration="1000"/>
    </trip>
    <trip id="v-11.0" type="car" depart="0" from="principalin" to="-road11">
        <stop parkingArea="ParkArea-11" duration="1000"/>
    </trip>
    <trip id="v12.0" type="car" depart="0" from="principalin" to="road12">
        <stop parkingArea="ParkArea12" duration="1000"/>
    </trip>
    <trip id="v-12.0" type="car" depart="0" from="principalin" to="-road12">
        <stop parkingArea="ParkArea-12" duration="1000"/>
    </trip>
    <trip id="v13.0" type="car" depart="0" from="principalin" to="road13">
        <stop parkingArea="ParkArea13" duration="1000"/>
    </trip>
    <trip id="v-13.0" type="car" depart="0" from="principalin" to="-road13">
        <stop parkingArea="ParkArea-13" duration="1000"/>
    </trip>
    <trip id="v14.0" type="car" depart="0" from="principalin" to="road14">
        <stop parkingArea="ParkArea14" duration="1000"/>
    </trip>
    <trip id="v-14.0" type="car" depart="0" from="principalin" to="-road14">
        <stop parkingArea="ParkArea-14" duration="1000"/>
    </trip>
    <trip id="v0.1" type="car" depart="40" from="principalin" to="road0">
        <stop parkingArea="ParkArea0" duration="1000"/>
    </trip>
    <trip id="v-0.1" type="car" depart="40" from="principalin" to="-road0">
        <stop parkingArea="ParkArea-0" duration="1000"/>
    </trip>
    <trip id="v1.1" type="car" depart="40" from="principalin" to="road1">
        <stop parkingArea="ParkArea1" duration="1000"/>
    </trip>
    <trip id="v-1.1" type="car" depart="40" from="principalin" to="-road1">
        <stop parkingArea="ParkArea-1" duration="1000"/>
    </trip>
    <trip id="v2.1" type="car" depart="40" from="principalin" to="road2">
        <stop parkingArea="ParkArea2" duration="1000"/>
    </trip>
    <trip id="v-2.1" type="car" depart="40" from="principalin" to="-road2">
        <stop parkingArea="ParkArea-2" duration="1000"/>
    </trip>
    <trip id="v3.1" type="car" depart="40" from="principalin" to="road3">
        <stop parkingArea="ParkArea3" duration="1000"/>
    </trip>
    <trip id="v-3.1" type="car" depart="40" from="principalin" to="-road3">
        <stop parkingArea="ParkArea-3" duration="1000"/>
    </trip>
    <trip id="v4.1" type="car" depart="40" from="principalin" to="road4">
        <stop parkingArea="ParkArea4" duration="1000"/>
    </trip>
    <trip id="v-4.1" type="car" depart="40" from="principalin" to="-road4">
        <stop parkingArea="ParkArea-4" duration="1000"/>
    </trip>
    <trip id="v5.1" type="car" depart="40" from="principalin" to="road5">
        <stop parkingArea="ParkArea5" duration="1000"/>
    </trip>
    <trip id="v-5.1" type="car" depart="40" from="principalin" to="-road5">
        <stop parkingArea="ParkArea-5" duration="1000"/>
    </trip>
    <trip id="v6.1" type="car" depart="40" from="principalin" to="road6">
        <stop parkingArea="ParkArea6" duration="1000"/>
    </trip>
    <trip id="v-6.1" type="car" depart="40" from="principalin" to="-road6">
        <stop parkingArea="ParkArea-6" duration="1000"/>
    </trip>
    <trip id="v7.1" type="car" depart="40" from="principalin" to="road7">
        <stop parkingArea="ParkArea7" duration="1000"/>
    </trip>
    <trip id="v-7.1" type="car" depart="40" from="principalin" to="-road7">
        <stop parkingArea="ParkArea-7" duration="1000"/>
    </trip>
    <trip id="v8.1" type="car" depart="40" from="principalin" to="road8">
        <stop parkingArea="ParkArea8" duration="1000"/>
    </trip>
    <trip id="v-8.1" type="car" depart="40" from="principalin" to="-road8">
        <stop parkingArea="ParkArea-8" duration="1000"/>
    </trip>
    <trip id="v9.1" type="car" depart="40" from="principalin" to="road9">
        <stop parkingArea="ParkArea9" duration="1000"/>
    </trip>
    <trip id="v-9.1" type="car" depart="40" from="principalin" to="-road9">
        <stop parkingArea="ParkArea-9" duration="1000"/>
    </trip>
    <trip id="v10.1" type="car" depart="40" from="principalin" to="road10">
        <stop parkingArea="ParkArea10" duration="1000"/>
    </trip>
    <trip id="v-10.1" type="car" depart="40" from="principalin" to="-road10">
        <stop parkingArea="ParkArea-10" duration="1000"/>
    </trip>
    <trip id="v11.1" type="car" depart="40" from="principalin" to="road11">
        <stop parkingArea="ParkArea11" duration="1000"/>
    </trip>
    <trip id="v-11.1" type="car" depart="40" from="principalin" to="-road11">
        <stop parkingArea="ParkArea-11" duration="1000"/>
    </trip>
    <trip id="v12.1" type="car" depart="40" from="principalin" to="road12">
        <stop parkingArea="ParkArea12" duration="1000"/>
    </trip>
    <trip id="v-12.1" type="car" depart="40" from="principalin" to="-road12">
        <stop parkingArea="ParkArea-12" duration="1000"/>
    </trip>
    <trip id="v13.1" type="car" depart="40" from="principalin" to="road13">
        <stop parkingArea="ParkArea13" duration="1000"/>
    </trip>
    <trip id="v-13.1" type="car" depart="40" from="principalin" to="-road13">
        <stop parkingArea="ParkArea-13" duration="1000"/>
    </trip>
    <trip id="v14.1" type="car" depart="40" from="principalin" to="road14">
        <stop parkingArea="ParkArea14" duration="1000"/>
    </trip>
    <trip id="v-14.1" type="car" depart="40" from="principalin" to="-road14">
        <stop parkingArea="ParkArea-14" duration="1000"/>
    </trip>
    <trip id="v0.2" type="car" depart="80" from="principalin" to="road0">
        <stop parkingArea="ParkArea0" duration="1000"/>
    </trip>
    <trip id="v-0.2" type="car" depart="80" from="principalin" to="-road0">
        <stop parkingArea="ParkArea-0" duration="1000"/>
    </trip>
    <trip id="v1.2" type="car" depart="80" from="principalin" to="road1">
        <stop parkingArea="ParkArea1" duration="1000"/>
    </trip>
    <trip id="v-1.2" type="car" depart="80" from="principalin" to="-road1">
        <stop parkingArea="ParkArea-1" duration="1000"/>
    </trip>
    <trip id="v2.2" type="car" depart="80" from="principalin" to="road2">
        <stop parkingArea="ParkArea2" duration="1000"/>
    </trip>
    <trip id="v-2.2" type="car" depart="80" from="principalin" to="-road2">
        <stop parkingArea="ParkArea-2" duration="1000"/>
    </trip>
    <trip id="v3.2" type="car" depart="80" from="principalin" to="road3">
        <stop parkingArea="ParkArea3" duration="1000"/>
    </trip>
    <trip id="v-3.2" type="car" depart="80" from="principalin" to="-road3">
        <stop parkingArea="ParkArea-3" duration="1000"/>
    </trip>
    <trip id="v4.2" type="car" depart="80" from="principalin" to="road4">
        <stop parkingArea="ParkArea4" duration="1000"/>
    </trip>
    <trip id="v-4.2" type="car" depart="80" from="principalin" to="-road4">
        <stop parkingArea="ParkArea-4" duration="1000"/>
    </trip>
    <trip id="v5.2" type="car" depart="80" from="principalin" to="road5">
        <stop parkingArea="ParkArea5" duration="1000"/>
    </trip>
    <trip id="v-5.2" type="car" depart="80" from="principalin" to="-road5">
        <stop parkingArea="ParkArea-5" duration="1000"/>
    </trip>
    <trip id="v6.2" type="car" depart="80" from="principalin" to="road6">
        <stop parkingArea="ParkArea6" duration="1000"/>
    </trip>
    <trip id="v-6.2" type="car" depart="80" from="principalin" to="-road6">
        <stop parkingArea="ParkArea-6" duration="1000"/>
    </trip>
    <trip id="v7.2" type="car" depart="80" from="principalin" to="road7">
        <stop parkingArea="ParkArea7" duration="1000"/>
    </trip>
    <trip id="v-7.2" type="car" depart="80" from="principalin" to="-road7">
        <stop parkingArea="ParkArea-7" duration="1000"/>
    </trip>
    <trip id="v8.2" type="car" depart="80" from="principalin" to="road8">
        <stop parkingArea="ParkArea8" duration="1000"/>
    </trip>
    <trip id="v-8.2" type="car" depart="80" from="principalin" to="-road8">
        <stop parkingArea="ParkArea-8" duration="1000"/>
    </trip>
    <trip id="v9.2" type="car" depart="80" from="principalin" to="road9">
        <stop parkingArea="ParkArea9" duration="1000"/>
    </trip>
    <trip id="v-9.2" type="car" depart="80" from="principalin" to="-road9">
        <stop parkingArea="ParkArea-9" duration="1000"/>
    </trip>
    <trip id="v10.2" type="car" depart="80" from="principalin" to="road10">
        <stop parkingArea="ParkArea10" duration="1000"/>
    </trip>
    <trip id="v-10.2" type="car" depart="80" from="principalin" to="-road10">
        <stop parkingArea="ParkArea-10" duration="1000"/>
    </trip>
    <trip id="v11.2" type="car" depart="80" from="principalin" to="road11">
        <stop parkingArea="ParkArea11" duration="1000"/>
    </trip>
    <trip id="v-11.2" type="car" depart="80" from="principalin" to="-road11">
        <stop parkingArea="ParkArea-11" duration="1000"/>
    </trip>
    <trip id="v12.2" type="car" depart="80" from="principalin" to="road12">
        <stop parkingArea="ParkArea12" duration="1000"/>
    </trip>
    <trip id="v-12.2" type="car" depart="80" from="principalin" to="-road12">
        <stop parkingArea="ParkArea-12" duration="1000"/>
    </trip>
    <trip id="v13.2" type="car" depart="80" from="principalin" to="road13">
        <stop parkingArea="ParkArea13" duration="1000"/>
    </trip>
    <trip id="v-13.2" type="car" depart="80" from="principalin" to="-road13">
        <stop parkingArea="ParkArea-13" duration="1000"/>
    </trip>
    <trip id="v14.2" type="car" depart="80" from="principalin" to="road14">
        <stop parkingArea="ParkArea14" duration="1000"/>
    </trip>
    <trip id="v-14.2" type="car" depart="80" from="principalin" to="-road14">
        <stop parkingArea="ParkArea-14" duration="1000"/>
    </trip>
    <trip id="v0.3" type="car" depart="120" from="principalin" to="road0">
        <stop parkingArea="ParkArea0" duration="1000"/>
    </trip>
    <trip id="v-0.3" type="car" depart="120" from="principalin" to="-road0">
        <stop parkingArea="ParkArea-0" duration="1000"/>
    </trip>
    <trip id="v1.3" type="car" depart="120" from="principalin" to="road1">
        <stop parkingArea="ParkArea1" duration="1000"/>
    </trip>
    <trip id="v-1.3" type="car" depart="120" from="principalin" to="-road1">
        <stop parkingArea="ParkArea-1" duration="1000"/>
    </trip>
    <trip id="v2.3" type="car" depart="120" from="principalin" to="road2">
        <stop parkingArea="ParkArea2" duration="1000"/>
    </trip>
    <trip id="v-2.3" type="car" depart="120" from="principalin" to="-road2">
        <stop parkingArea="ParkArea-2" duration="1000"/>
    </trip>
    <trip id="v3.3" type="car" depart="120" from="principalin" to="road3">
        <stop parkingArea="ParkArea3" duration="1000"/>
    </trip>
    <trip id="v-3.3" type="car" depart="120" from="principalin" to="-road3">
        <stop parkingArea="ParkArea-3" duration="1000"/>
    </trip>
    <trip id="v4.3" type="car" depart="120" from="principalin" to="road4">
        <stop parkingArea="ParkArea4" duration="1000"/>
    </trip>
    <trip id="v-4.3" type="car" depart="120" from="principalin" to="-road4">
        <stop parkingArea="ParkArea-4" duration="1000"/>
    </trip>
    <trip id="v5.3" type="car" depart="120" from="principalin" to="road5">
        <stop parkingArea="ParkArea5" duration="1000"/>
    </trip>
    <trip id="v-5.3" type="car" depart="120" from="principalin" to="-road5">
        <stop parkingArea="ParkArea-5" duration="1000"/>
    </trip>
    <trip id="v6.3" type="car" depart="120" from="principalin" to="road6">
        <stop parkingArea="ParkArea6" duration="1000"/>
    </trip>
    <trip id="v-6.3" type="car" depart="120" from="principalin" to="-road6">
        <stop parkingArea="ParkArea-6" duration="1000"/>
    </trip>
    <trip id="v7.3" type="car" depart="120" from="principalin" to="road7">
        <stop parkingArea="ParkArea7" duration="1000"/>
    </trip>
    <trip id="v-7.3" type="car" depart="120" from="principalin" to="-road7">
        <stop parkingArea="ParkArea-7" duration="1000"/>
    </trip>
    <trip id="v8.3" type="car" depart="120" from="principalin" to="road8">
        <stop parkingArea="ParkArea8" duration="1000"/>
    </trip>
    <trip id="v-8.3" type="car" depart="120" from="principalin" to="-road8">
        <stop parkingArea="ParkArea-8" duration="1000"/>
    </trip>
    <trip id="v9.3" type="car" depart="120" from="principalin" to="road9">
        <stop parkingArea="ParkArea9" duration="1000"/>
    </trip>
    <trip id="v-9.3" type="car" depart="120" from="principalin" to="-road9">
        <stop parkingArea="ParkArea-9" duration="1000"/>
    </trip>
    <trip id="v10.3" type="car" depart="120" from="principalin" to="road10">
        <stop parkingArea="ParkArea10" duration="1000"/>
    </trip>
    <trip id="v-10.3" type="car" depart="120" from="principalin" to="-road10">
        <stop parkingArea="ParkArea-10" duration="1000"/>
    </trip>
    <trip id="v11.3" type="car" depart="120" from="principalin" to="road11">
        <stop parkingArea="ParkArea11" duration="1000"/>
    </trip>
    <trip id="v-11.3" type="car" depart="120" from="principalin" to="-road11">
        <stop parkingArea="ParkArea-11" duration="1000"/>
    </trip>
    <trip id="v12.3" type="car" depart="120" from="principalin" to="road12">
        <stop parkingArea="ParkArea12" duration="1000"/>
    </trip>
    <trip id="v-12.3" type="car" depart="120" from="principalin" to="-road12">
        <stop parkingArea="ParkArea-12" duration="1000"/>
    </trip>
    <trip id="v13.3" type="car" depart="120" from="principalin" to="road13">
        <stop parkingArea="ParkArea13" duration="1000"/>
    </trip>
    <trip id="v-13.3" type="car" depart="120" from="principalin" to="-road13">
        <stop parkingArea="ParkArea-13" duration="1000"/>
    </trip>
    <trip id="v14.3" type="car" depart="120" from="principalin" to="road14">
        <stop parkingArea="ParkArea14" duration="1000"/>
    </trip>
    <trip id="v-14.3" type="car" depart="120" from="principalin" to="-road14">
        <stop parkingArea="ParkArea-14" duration="1000"/>
    </trip>
    <trip id="v0.4" type="car" depart="160" from="principalin" to="road0">
        <stop parkingArea="ParkArea0" duration="1000"/>
    </trip>
    <trip id="v-0.4" type="car" depart="160" from="principalin" to="-road0">
        <stop parkingArea="ParkArea-0" duration="1000"/>
    </trip>
    <trip id="v1.4" type="car" depart="160" from="principalin" to="road1">
        <stop parkingArea="ParkArea1" duration="1000"/>
    </trip>
    <trip id="v-1.4" type="car" depart="160" from="principalin" to="-road1">
        <stop parkingArea="ParkArea-1" duration="1000"/>
    </trip>
    <trip id="v2.4" type="car" depart="160" from="principalin" to="road2">
        <stop parkingArea="ParkArea2" duration="1000"/>
    </trip>
    <trip id="v-2.4" type="car" depart="160" from="principalin" to="-road2">
        <stop parkingArea="ParkArea-2" duration="1000"/>
    </trip>
    <trip id="v3.4" type="car" depart="160" from="principalin" to="road3">
        <stop parkingArea="ParkArea3" duration="1000"/>
    </trip>
    <trip id="v-3.4" type="car" depart="160" from="principalin" to="-road3">
        <stop parkingArea="ParkArea-3" duration="1000"/>
    </trip>
    <trip id="v4.4" type="car" depart="160" from="principalin" to="road4">
        <stop parkingArea="ParkArea4" duration="1000"/>
    </trip>
    <trip id="v-4.4" type="car" depart="160" from="principalin" to="-road4">
        <stop parkingArea="ParkArea-4" duration="1000"/>
    </trip>
    <trip id="v5.4" type="car" depart="160" from="principalin" to="road5">
        <stop parkingArea="ParkArea5" duration="1000"/>
    </trip>
    <trip id="v-5.4" type="car" depart="160" from="principalin" to="-road5">
        <stop parkingArea="ParkArea-5" duration="1000"/>
    </trip>
    <trip id="v6.4" type="car" depart="160" from="principalin" to="road6">
        <stop parkingArea="ParkArea6" duration="1000"/>
    </trip>
    <trip id="v-6.4" type="car" depart="160" from="principalin" to="-road6">
        <stop parkingArea="ParkArea-6" duration="1000"/>
    </trip>
    <trip id="v7.4" type="car" depart="160" from="principalin" to="road7">
        <stop parkingArea="ParkArea7" duration="1000"/>
    </trip>
    <trip id="v-7.4" type="car" depart="160" from="principalin" to="-road7">
        <stop parkingArea="ParkArea-7" duration="1000"/>
    </trip>
    <trip id="v8.4" type="car" depart="160" from="principalin" to="road8">
        <stop parkingArea="ParkArea8" duration="1000"/>
    </trip>
    <trip id="v-8.4" type="car" depart="160" from="principalin" to="-road8">
        <stop parkingArea="ParkArea-8" duration="1000"/>
    </trip>
    <trip id="v9.4" type="car" depart="160" from="principalin" to="road9">
        <stop parkingArea="ParkArea9" duration="1000"/>
    </trip>
    <trip id="v-9.4" type="car" depart="160" from="principalin" to="-road9">
        <stop parkingArea="ParkArea-9" duration="1000"/>
    </trip>
    <trip id="v10.4" type="car" depart="160" from="principalin" to="road10">
        <stop parkingArea="ParkArea10" duration="1000"/>
    </trip>
    <trip id="v-10.4" type="car" depart="160" from="principalin" to="-road10">
        <stop parkingArea="ParkArea-10" duration="1000"/>
    </trip>
    <trip id="v11.4" type="car" depart="160" from="principalin" to="road11">
        <stop parkingArea="ParkArea11" duration="1000"/>
    </trip>
    <trip id="v-11.4" type="car" depart="160" from="principalin" to="-road11">
        <stop parkingArea="ParkArea-11" duration="1000"/>
    </trip>
    <trip id="v12.4" type="car" depart="160" from="principalin" to="road12">
        <stop parkingArea="ParkArea12" duration="1000"/>
    </trip>
    <trip id="v-12.4" type="car" depart="160" from="principalin" to="-road12">
        <stop parkingArea="ParkArea-12" duration="1000"/>
    </trip>
    <trip id="v13.4" type="car" depart="160" from="principalin" to="road13">
        <stop parkingArea="ParkArea13" duration="1000"/>
    </trip>
    <trip id="v-13.4" type="car" depart="160" from="principalin" to="-road13">
        <stop parkingArea="ParkArea-13" duration="1000"/>
    </trip>
    <trip id="v14.4" type="car" depart="160" from="principalin" to="road14">
        <stop parkingArea="ParkArea14" duration="1000"/>
    </trip>
    <trip id="v-14.4" type="car" depart="160" from="principalin" to="-road14">
        <stop parkingArea="ParkArea-14" duration="1000"/>
    </trip>
    <trip id="v0.5" type="car" depart="200" from="principalin" to="road0">
        <stop parkingArea="ParkArea0" duration="1000"/>
    </trip>
    <trip id="v-0.5" type="car" depart="200" from="principalin" to="-road0">
        <stop parkingArea="ParkArea-0" duration="1000"/>
    </trip>
    <trip id="v1.5" type="car" depart="200" from="principalin" to="road1">
        <stop parkingArea="ParkArea1" duration="1000"/>
    </trip>
    <trip id="v-1.5" type="car" depart="200" from="principalin" to="-road1">
        <stop parkingArea="ParkArea-1" duration="1000"/>
    </trip>
    <trip id="v2.5" type="car" depart="200" from="principalin" to="road2">
        <stop parkingArea="ParkArea2" duration="1000"/>
    </trip>
    <trip id="v-2.5" type="car" depart="200" from="principalin" to="-road2">
        <stop parkingArea="ParkArea-2" duration="1000"/>
    </trip>
    <trip id="v3.5" type="car" depart="200" from="principalin" to="road3">
        <stop parkingArea="ParkArea3" duration="1000"/>
    </trip>
    <trip id="v-3.5" type="car" depart="200" from="principalin" to="-road3">
        <stop parkingArea="ParkArea-3" duration="1000"/>
    </trip>
    <trip id="v4.5" type="car" depart="200" from="principalin" to="road4">
        <stop parkingArea="ParkArea4" duration="1000"/>
    </trip>
    <trip id="v-4.5" type="car" depart="200" from="principalin" to="-road4">
        <stop parkingArea="ParkArea-4" duration="1000"/>
    </trip>
    <trip id="v5.5" type="car" depart="200" from="principalin" to="road5">
        <stop parkingArea="ParkArea5" duration="1000"/>
    </trip>
    <trip id="v-5.5" type="car" depart="200" from="principalin" to="-road5">
        <stop parkingArea="ParkArea-5" duration="1000"/>
    </trip>
    <trip id="v6.5" type="car" depart="200" from="principalin" to="road6">
        <stop parkingArea="ParkArea6" duration="1000"/>
    </trip>
    <trip id="v-6.5" type="car" depart="200" from="principalin" to="-road6">
        <stop parkingArea="ParkArea-6" duration="1000"/>
    </trip>
    <trip id="v7.5" type="car" depart="200" from="principalin" to="road7">
        <stop parkingArea="ParkArea7" duration="1000"/>
    </trip>
    <trip id="v-7.5" type="car" depart="200" from="principalin" to="-road7">
        <stop parkingArea="ParkArea-7" duration="1000"/>
    </trip>
    <trip id="v8.5" type="car" depart="200" from="principalin" to="road8">
        <stop parkingArea="ParkArea8" duration="1000"/>
    </trip>
    <trip id="v-8.5" type="car" depart="200" from="principalin" to="-road8">
        <stop parkingArea="ParkArea-8" duration="1000"/>
    </trip>
    <trip id="v9.5" type="car" depart="200" from="principalin" to="road9">
        <stop parkingArea="ParkArea9" duration="1000"/>
    </trip>
    <trip id="v-9.5" type="car" depart="200" from="principalin" to="-road9">
        <stop parkingArea="ParkArea-9" duration="1000"/>
    </trip>
    <trip id="v10.5" type="car" depart="200" from="principalin" to="road10">
        <stop parkingArea="ParkArea10" duration="1000"/>
    </trip>
    <trip id="v-10.5" type="car" depart="200" from="principalin" to="-road10">
        <stop parkingArea="ParkArea-10" duration="1000"/>
    </trip>
    <trip id="v11.5" type="car" depart="200" from="principalin" to="road11">
        <stop parkingArea="ParkArea11" duration="1000"/>
    </trip>
    <trip id="v-11.5" type="car" depart="200" from="principalin" to="-road11">
        <stop parkingArea="ParkArea-11" duration="1000"/>
    </trip>
    <trip id="v12.5" type="car" depart="200" from="principalin" to="road12">
        <stop parkingArea="ParkArea12" duration="1000"/>
    </trip>
    <trip id="v-12.5" type="car" depart="200" from="principalin" to="-road12">
        <stop parkingArea="ParkArea-12" duration="1000"/>
    </trip>
    <trip id="v13.5" type="car" depart="200" from="principalin" to="road13">
        <stop parkingArea="ParkArea13" duration="1000"/>
    </trip>
    <trip id="v-13.5" type="car" depart="200" from="principalin" to="-road13">
        <stop parkingArea="ParkArea-13" duration="1000"/>
    </trip>
    <trip id="v14.5" type="car" depart="200" from="principalin" to="road14">
        <stop parkingArea="ParkArea14" duration="1000"/>
    </trip>
    <trip id="v-14.5" type="car" depart="200" from="principalin" to="-road14">
        <stop parkingArea="ParkArea-14" duration="1000"/>
    </trip>
    <trip id="v0.6" type="car" depart="240" from="principalin" to="road0">
        <stop parkingArea="ParkArea0" duration="1000"/>
    </trip>
    <trip id="v-0.6" type="car" depart="240" from="principalin" to="-road0">
        <stop parkingArea="ParkArea-0" duration="1000"/>
    </trip>
    <trip id="v1.6" type="car" depart="240" from="principalin" to="road1">
        <stop parkingArea="ParkArea1" duration="1000"/>
    </trip>
    <trip id="v-1.6" type="car" depart="240" from="principalin" to="-road1">
        <stop parkingArea="ParkArea-1" duration="1000"/>
    </trip>
    <trip id="v2.6" type="car" depart="240" from="principalin" to="road2">
        <stop parkingArea="ParkArea2" duration="1000"/>
    </trip>
    <trip id="v-2.6" type="car" depart="240" from="principalin" to="-road2">
        <stop parkingArea="ParkArea-2" duration="1000"/>
    </trip>
    <trip id="v3.6" type="car" depart="240" from="principalin" to="road3">
        <stop parkingArea="ParkArea3" duration="1000"/>
    </trip>
    <trip id="v-3.6" type="car" depart="240" from="principalin" to="-road3">
        <stop parkingArea="ParkArea-3" duration="1000"/>
    </trip>
    <trip id="v4.6" type="car" depart="240" from="principalin" to="road4">
        <stop parkingArea="ParkArea4" duration="1000"/>
    </trip>
    <trip id="v-4.6" type="car" depart="240" from="principalin" to="-road4">
        <stop parkingArea="ParkArea-4" duration="1000"/>
    </trip>
    <trip id="v5.6" type="car" depart="240" from="principalin" to="road5">
        <stop parkingArea="ParkArea5" duration="1000"/>
    </trip>
    <trip id="v-5.6" type="car" depart="240" from="principalin" to="-road5">
        <stop parkingArea="ParkArea-5" duration="1000"/>
    </trip>
    <trip id="v6.6" type="car" depart="240" from="principalin" to="road6">
        <stop parkingArea="ParkArea6" duration="1000"/>
    </trip>
    <trip id="v-6.6" type="car" depart="240" from="principalin" to="-road6">
        <stop parkingArea="ParkArea-6" duration="1000"/>
    </trip>
    <trip id="v7.6" type="car" depart="240" from="principalin" to="road7">
        <stop parkingArea="ParkArea7" duration="1000"/>
    </trip>
    <trip id="v-7.6" type="car" depart="240" from="principalin" to="-road7">
        <stop parkingArea="ParkArea-7" duration="1000"/>
    </trip>
    <trip id="v8.6" type="car" depart="240" from="principalin" to="road8">
        <stop parkingArea="ParkArea8" duration="1000"/>
    </trip>
    <trip id="v-8.6" type="car" depart="240" from="principalin" to="-road8">
        <stop parkingArea="ParkArea-8" duration="1000"/>
    </trip>
    <trip id="v9.6" type="car" depart="240" from="principalin" to="road9">
        <stop parkingArea="ParkArea9" duration="1000"/>
    </trip>
    <trip id="v-9.6" type="car" depart="240" from="principalin" to="-road9">
        <stop parkingArea="ParkArea-9" duration="1000"/>
    </trip>
    <trip id="v10.6" type="car" depart="240" from="principalin" to="road10">
        <stop parkingArea="ParkArea10" duration="1000"/>
    </trip>
    <trip id="v-10.6" type="car" depart="240" from="principalin" to="-road10">
        <stop parkingArea="ParkArea-10" duration="1000"/>
    </trip>
    <trip id="v11.6" type="car" depart="240" from="principalin" to="road11">
        <stop parkingArea="ParkArea11" duration="1000"/>
    </trip>
    <trip id="v-11.6" type="car" depart="240" from="principalin" to="-road11">
        <stop parkingArea="ParkArea-11" duration="1000"/>
    </trip>
    <trip id="v12.6" type="car" depart="240" from="principalin" to="road12">
        <stop parkingArea="ParkArea12" duration="1000"/>
    </trip>
    <trip id="v-12.6" type="car" depart="240" from="principalin" to="-road12">
        <stop parkingArea="ParkArea-12" duration="1000"/>
    </trip>
    <trip id="v13.6" type="car" depart="240" from="principalin" to="road13">
        <stop parkingArea="ParkArea13" duration="1000"/>
    </trip>