<?xml version="1.0" encoding="UTF-8"?>

<!-- generated on Wed Nov  6 17:16:04 2024 by Eclipse SUMO netconvert Version 1.8.0
<configuration xmlns:xsi="http://www.w3.org/2001/XMLSchema-instance" xsi:noNamespaceSchemaLocation="http://sumo.dlr.de/xsd/netconvertConfiguration.xsd">

    <input>
        <node-files value="park.nod.xml"/>
        <edge-files value="park.edg.xml"/>
    </input>

    <output>
        <output-file value="park.net.xml"/>
    </output>

    <report>
        <aggregate-warnings value="5"/>
    </report>

</configuration>
-->

<net version="1.6" junctionCornerDetail="5" limitTurnSpeed="5.50" xmlns:xsi="http://www.w3.org/2001/XMLSchema-instance" xsi:noNamespaceSchemaLocation="http://sumo.dlr.de/xsd/net_file.xsd">

    <location netOffset="100.00,0.00" convBoundary="0.00,0.00,606.00,165.00" origBoundary="-100.00,0.00,506.00,165.00" projParameter="!"/>

    <edge id=":principal0_0" function="internal">
        <lane id=":principal0_0_0" index="0" disallow="pedestrian" speed="6.68" length="0.92" shape="98.40,1.50 98.73,0.64"/>
    </edge>
    <edge id=":principal0_1" function="internal">
        <lane id=":principal0_1_0" index="0" disallow="pedestrian" speed="3.65" length="0.97" shape="98.40,1.50 98.94,0.69"/>
    </edge>
    <edge id=":principal0_5" function="internal">
        <lane id=":principal0_5_0" index="0" disallow="pedestrian" speed="6.68" length="8.66" shape="98.73,0.64 98.92,0.14 100.48,-0.82 103.07,-1.41 106.70,-1.60"/>
    </edge>
    <edge id=":principal0_6" function="internal">
        <lane id=":principal0_6_0" index="0" disallow="pedestrian" speed="3.65" length="3.70" shape="98.94,0.69 99.20,0.30 100.00,-0.10 100.80,0.30 101.60,1.50"/>
    </edge>
    <edge id=":principal0_2" function="internal">
        <lane id=":principal0_2_0" index="0" speed="13.89" length="13.40" shape="93.30,-4.80 106.70,-4.80"/>
        <lane id=":principal0_2_1" index="1" speed="13.89" length="13.40" shape="93.30,-1.60 106.70,-1.60"/>
    </edge>
    <edge id=":principal0_4" function="internal">
        <lane id=":principal0_4_0" index="0" disallow="pedestrian" speed="6.68" length="9.58" shape="93.30,-1.60 96.93,-1.41 99.53,-0.83 101.08,0.14 101.60,1.50"/>
    </edge>
    <edge id=":principal1_0" function="internal">
        <lane id=":principal1_0_0" index="0" disallow="pedestrian" speed="6.68" length="0.92" shape="127.40,1.50 127.73,0.64"/>
    </edge>
    <edge id=":principal1_1" function="internal">
        <lane id=":principal1_1_0" index="0" disallow="pedestrian" speed="3.65" length="0.97" shape="127.40,1.50 127.94,0.69"/>
    </edge>
    <edge id=":principal1_5" function="internal">
        <lane id=":principal1_5_0" index="0" disallow="pedestrian" speed="6.68" length="8.66" shape="127.73,0.64 127.92,0.14 129.48,-0.82 132.07,-1.41 135.70,-1.60"/>
    </edge>
    <edge id=":principal1_6" function="internal">
        <lane id=":principal1_6_0" index="0" disallow="pedestrian" speed="3.65" length="3.70" shape="127.94,0.69 128.20,0.30 129.00,-0.10 129.80,0.30 130.60,1.50"/>
    </edge>
    <edge id=":principal1_2" function="internal">
        <lane id=":principal1_2_0" index="0" speed="13.89" length="13.40" shape="122.30,-4.80 135.70,-4.80"/>
        <lane id=":principal1_2_1" index="1" speed="13.89" length="13.40" shape="122.30,-1.60 135.70,-1.60"/>
    </edge>
    <edge id=":principal1_4" function="internal">
        <lane id=":principal1_4_0" index="0" disallow="pedestrian" speed="6.68" length="9.58" shape="122.30,-1.60 125.93,-1.41 128.53,-0.83 130.08,0.14 130.60,1.50"/>
    </edge>
    <edge id=":principal10_0" function="internal">
        <lane id=":principal10_0_0" index="0" disallow="pedestrian" speed="6.68" length="0.92" shape="388.40,1.50 388.73,0.64"/>
    </edge>
    <edge id=":principal10_1" function="internal">
        <lane id=":principal10_1_0" index="0" disallow="pedestrian" speed="3.65" length="0.97" shape="388.40,1.50 388.94,0.69"/>
    </edge>
    <edge id=":principal10_5" function="internal">
        <lane id=":principal10_5_0" index="0" disallow="pedestrian" speed="6.68" length="8.66" shape="388.73,0.64 388.92,0.14 390.47,-0.82 393.07,-1.41 396.70,-1.60"/>
    </edge>
    <edge id=":principal10_6" function="internal">
        <lane id=":principal10_6_0" index="0" disallow="pedestrian" speed="3.65" length="3.70" shape="388.94,0.69 389.20,0.30 390.00,-0.10 390.80,0.30 391.60,1.50"/>
    </edge>
    <edge id=":principal10_2" function="internal">
        <lane id=":principal10_2_0" index="0" speed="13.89" length="13.40" shape="383.30,-4.80 396.70,-4.80"/>
        <lane id=":principal10_2_1" index="1" speed="13.89" length="13.40" shape="383.30,-1.60 396.70,-1.60"/>
    </edge>
    <edge id=":principal10_4" function="internal">
        <lane id=":principal10_4_0" index="0" disallow="pedestrian" speed="6.68" length="9.58" shape="383.30,-1.60 386.93,-1.41 389.52,-0.83 391.08,0.14 391.60,1.50"/>
    </edge>
    <edge id=":principal11_0" function="internal">
        <lane id=":principal11_0_0" index="0" disallow="pedestrian" speed="6.68" length="0.92" shape="417.40,1.50 417.73,0.64"/>
    </edge>
    <edge id=":principal11_1" function="internal">
        <lane id=":principal11_1_0" index="0" disallow="pedestrian" speed="3.65" length="0.97" shape="417.40,1.50 417.94,0.69"/>
    </edge>
    <edge id=":principal11_5" function="internal">
        <lane id=":principal11_5_0" index="0" disallow="pedestrian" speed="6.68" length="8.66" shape="417.73,0.64 417.92,0.14 419.47,-0.82 422.07,-1.41 425.70,-1.60"/>
    </edge>
    <edge id=":principal11_6" function="internal">
        <lane id=":principal11_6_0" index="0" disallow="pedestrian" speed="3.65" length="3.70" shape="417.94,0.69 418.20,0.30 419.00,-0.10 419.80,0.30 420.60,1.50"/>
    </edge>
    <edge id=":principal11_2" function="internal">
        <lane id=":principal11_2_0" index="0" speed="13.89" length="13.40" shape="412.30,-4.80 425.70,-4.80"/>
        <lane id=":principal11_2_1" index="1" speed="13.89" length="13.40" shape="412.30,-1.60 425.70,-1.60"/>
    </edge>
    <edge id=":principal11_4" function="internal">
        <lane id=":principal11_4_0" index="0" disallow="pedestrian" speed="6.68" length="9.58" shape="412.30,-1.60 415.93,-1.41 418.52,-0.83 420.08,0.14 420.60,1.50"/>
    </edge>
    <edge id=":principal12_0" function="internal">
        <lane id=":principal12_0_0" index="0" disallow="pedestrian" speed="6.68" length="0.92" shape="446.40,1.50 446.73,0.64"/>
    </edge>
    <edge id=":principal12_1" function="internal">
        <lane id=":principal12_1_0" index="0" disallow="pedestrian" speed="3.65" length="0.97" shape="446.40,1.50 446.94,0.69"/>
    </edge>
    <edge id=":principal12_5" function="internal">
        <lane id=":principal12_5_0" index="0" disallow="pedestrian" speed="6.68" length="8.66" shape="446.73,0.64 446.92,0.14 448.47,-0.82 451.07,-1.41 454.70,-1.60"/>
    </edge>
    <edge id=":principal12_6" function="internal">
        <lane id=":principal12_6_0" index="0" disallow="pedestrian" speed="3.65" length="3.70" shape="446.94,0.69 447.20,0.30 448.00,-0.10 448.80,0.30 449.60,1.50"/>
    </edge>
    <edge id=":principal12_2" function="internal">
        <lane id=":principal12_2_0" index="0" speed="13.89" length="13.40" shape="441.30,-4.80 454.70,-4.80"/>
        <lane id=":principal12_2_1" index="1" speed="13.89" length="13.40" shape="441.30,-1.60 454.70,-1.60"/>
    </edge>
    <edge id=":principal12_4" function="internal">
        <lane id=":principal12_4_0" index="0" disallow="pedestrian" speed="6.68" length="9.58" shape="441.30,-1.60 444.93,-1.41 447.52,-0.83 449.08,0.14 449.60,1.50"/>
    </edge>
    <edge id=":principal13_0" function="internal">
        <lane id=":principal13_0_0" index="0" disallow="pedestrian" speed="6.68" length="0.92" shape="475.40,1.50 475.73,0.64"/>
    </edge>
    <edge id=":principal13_1" function="internal">
        <lane id=":principal13_1_0" index="0" disallow="pedestrian" speed="3.65" length="0.97" shape="475.40,1.50 475.94,0.69"/>
    </edge>
    <edge id=":principal13_5" function="internal">
        <lane id=":principal13_5_0" index="0" disallow="pedestrian" speed="6.68" length="8.66" shape="475.73,0.64 475.92,0.14 477.47,-0.82 480.07,-1.41 483.70,-1.60"/>
    </edge>
    <edge id=":principal13_6" function="internal">
        <lane id=":principal13_6_0" index="0" disallow="pedestrian" speed="3.65" length="3.70" shape="475.94,0.69 476.20,0.30 477.00,-0.10 477.80,0.30 478.60,1.50"/>
    </edge>
    <edge id=":principal13_2" function="internal">
        <lane id=":principal13_2_0" index="0" speed="13.89" length="13.40" shape="470.30,-4.80 483.70,-4.80"/>
        <lane id=":principal13_2_1" index="1" speed="13.89" length="13.40" shape="470.30,-1.60 483.70,-1.60"/>
    </edge>
    <edge id=":principal13_4" function="internal">
        <lane id=":principal13_4_0" index="0" disallow="pedestrian" speed="6.68" length="9.58" shape="470.30,-1.60 473.93,-1.41 476.52,-0.83 478.08,0.14 478.60,1.50"/>
    </edge>
    <edge id=":principal14_0" function="internal">
        <lane id=":principal14_0_0" index="0" disallow="pedestrian" speed="6.68" length="0.92" shape="504.40,1.50 504.73,0.64"/>
    </edge>
    <edge id=":principal14_1" function="internal">
        <lane id=":principal14_1_0" index="0" disallow="pedestrian" speed="3.65" length="0.97" shape="504.40,1.50 504.94,0.69"/>
    </edge>
    <edge id=":principal14_5" function="internal">
        <lane id=":principal14_5_0" index="0" disallow="pedestrian" speed="6.68" length="8.66" shape="504.73,0.64 504.92,0.14 506.47,-0.82 509.07,-1.41 512.70,-1.60"/>
    </edge>
    <edge id=":principal14_6" function="internal">
        <lane id=":principal14_6_0" index="0" disallow="pedestrian" speed="3.65" length="3.70" shape="504.94,0.69 505.20,0.30 506.00,-0.10 506.80,0.30 507.60,1.50"/>
    </edge>
    <edge id=":principal14_2" function="internal">
        <lane id=":principal14_2_0" index="0" speed="13.89" length="13.40" shape="499.30,-4.80 512.70,-4.80"/>
        <lane id=":principal14_2_1" index="1" speed="13.89" length="13.40" shape="499.30,-1.60 512.70,-1.60"/>
    </edge>
    <edge id=":principal14_4" function="internal">
        <lane id=":principal14_4_0" index="0" disallow="pedestrian" speed="6.68" length="9.58" shape="499.30,-1.60 502.93,-1.41 505.52,-0.83 507.08,0.14 507.60,1.50"/>
    </edge>
    <edge id=":principal2_0" function="internal">
        <lane id=":principal2_0_0" index="0" disallow="pedestrian" speed="6.68" length="0.92" shape="156.40,1.50 156.73,0.64"/>
    </edge>
    <edge id=":principal2_1" function="internal">
        <lane id=":principal2_1_0" index="0" disallow="pedestrian" speed="3.65" length="0.97" shape="156.40,1.50 156.94,0.69"/>
    </edge>
    <edge id=":principal2_5" function="internal">
        <lane id=":principal2_5_0" index="0" disallow="pedestrian" speed="6.68" length="8.66" shape="156.73,0.64 156.92,0.14 158.48,-0.82 161.07,-1.41 164.70,-1.60"/>
    </edge>
    <edge id=":principal2_6" function="internal">
        <lane id=":principal2_6_0" index="0" disallow="pedestrian" speed="3.65" length="3.70" shape="156.94,0.69 157.20,0.30 158.00,-0.10 158.80,0.30 159.60,1.50"/>
    </edge>
    <edge id=":principal2_2" function="internal">
        <lane id=":principal2_2_0" index="0" speed="13.89" length="13.40" shape="151.30,-4.80 164.70,-4.80"/>
        <lane id=":principal2_2_1" index="1" speed="13.89" length="13.40" shape="151.30,-1.60 164.70,-1.60"/>
    </edge>
    <edge id=":principal2_4" function="internal">
        <lane id=":principal2_4_0" index="0" disallow="pedestrian" speed="6.68" length="9.58" shape="151.30,-1.60 154.93,-1.41 157.52,-0.83 159.08,0.14 159.60,1.50"/>
    </edge>
    <edge id=":principal3_0" function="internal">
        <lane id=":principal3_0_0" index="0" disallow="pedestrian" speed="6.68" length="0.92" shape="185.40,1.50 185.73,0.64"/>
    </edge>
    <edge id=":principal3_1" function="internal">
        <lane id=":principal3_1_0" index="0" disallow="pedestrian" speed="3.65" length="0.97" shape="185.40,1.50 185.94,0.69"/>
    </edge>
    <edge id=":principal3_5" function="internal">
        <lane id=":principal3_5_0" index="0" disallow="pedestrian" speed="6.68" length="8.66" shape="185.73,0.64 185.92,0.14 187.48,-0.82 190.07,-1.41 193.70,-1.60"/>
    </edge>
    <edge id=":principal3_6" function="internal">
        <lane id=":principal3_6_0" index="0" disallow="pedestrian" speed="3.65" length="3.70" shape="185.94,0.69 186.20,0.30 187.00,-0.10 187.80,0.30 188.60,1.50"/>
    </edge>
    <edge id=":principal3_2" function="internal">
        <lane id=":principal3_2_0" index="0" speed="13.89" length="13.40" shape="180.30,-4.80 193.70,-4.80"/>
        <lane id=":principal3_2_1" index="1" speed="13.89" length="13.40" shape="180.30,-1.60 193.70,-1.60"/>
    </edge>
    <edge id=":principal3_4" function="internal">
        <lane id=":principal3_4_0" index="0" disallow="pedestrian" speed="6.68" length="9.58" shape="180.30,-1.60 183.93,-1.41 186.53,-0.83 188.08,0.14 188.60,1.50"/>
    </edge>
    <edge id=":principal4_0" function="internal">
        <lane id=":principal4_0_0" index="0" disallow="pedestrian" speed="6.68" length="0.92" shape="214.40,1.50 214.73,0.64"/>
    </edge>
    <edge id=":principal4_1" function="internal">
        <lane id=":principal4_1_0" index="0" disallow="pedestrian" speed="3.65" length="0.97" shape="214.40,1.50 214.94,0.69"/>
    </edge>
    <edge id=":principal4_5" function="internal">
        <lane id=":principal4_5_0" index="0" disallow="pedestrian" speed="6.68" length="8.66" shape="214.73,0.64 214.92,0.14 216.48,-0.82 219.07,-1.41 222.70,-1.60"/>
    </edge>
    <edge id=":principal4_6" function="internal">
        <lane id=":principal4_6_0" index="0" disallow="pedestrian" speed="3.65" length="3.70" shape="214.94,0.69 215.20,0.30 216.00,-0.10 216.80,0.30 217.60,1.50"/>
    </edge>
    <edge id=":principal4_2" function="internal">
        <lane id=":principal4_2_0" index="0" speed="13.89" length="13.40" shape="209.30,-4.80 222.70,-4.80"/>
        <lane id=":principal4_2_1" index="1" speed="13.89" length="13.40" shape="209.30,-1.60 222.70,-1.60"/>
    </edge>
    <edge id=":principal4_4" function="internal">
        <lane id=":principal4_4_0" index="0" disallow="pedestrian" speed="6.68" length="9.58" shape="209.30,-1.60 212.93,-1.41 215.53,-0.83 217.08,0.14 217.60,1.50"/>
    </edge>
    <edge id=":principal5_0" function="internal">
        <lane id=":principal5_0_0" index="0" disallow="pedestrian" speed="6.68" length="0.92" shape="243.40,1.50 243.73,0.64"/>
    </edge>
    <edge id=":principal5_1" function="internal">
        <lane id=":principal5_1_0" index="0" disallow="pedestrian" speed="3.65" length="0.97" shape="243.40,1.50 243.94,0.69"/>
    </edge>
    <edge id=":principal5_5" function="internal">
        <lane id=":principal5_5_0" index="0" disallow="pedestrian" speed="6.68" length="8.66" shape="243.73,0.64 243.92,0.14 245.48,-0.82 248.07,-1.41 251.70,-1.60"/>
    </edge>
    <edge id=":principal5_6" function="internal">
        <lane id=":principal5_6_0" index="0" disallow="pedestrian" speed="3.65" length="3.70" shape="243.94,0.69 244.20,0.30 245.00,-0.10 245.80,0.30 246.60,1.50"/>
    </edge>
    <edge id=":principal5_2" function="internal">
        <lane id=":principal5_2_0" index="0" speed="13.89" length="13.40" shape="238.30,-4.80 251.70,-4.80"/>
        <lane id=":principal5_2_1" index="1" speed="13.89" length="13.40" shape="238.30,-1.60 251.70,-1.60"/>
    </edge>
    <edge id=":principal5_4" function="internal">
        <lane id=":principal5_4_0" index="0" disallow="pedestrian" speed="6.68" length="9.58" shape="238.30,-1.60 241.93,-1.41 244.53,-0.83 246.08,0.14 246.60,1.50"/>
    </edge>
    <edge id=":principal6_0" function="internal">
        <lane id=":principal6_0_0" index="0" disallow="pedestrian" speed="6.68" length="0.92" shape="272.40,1.50 272.73,0.64"/>
    </edge>
    <edge id=":principal6_1" function="internal">
        <lane id=":principal6_1_0" index="0" disallow="pedestrian" speed="3.65" length="0.97" shape="272.40,1.50 272.94,0.69"/>
    </edge>
    <edge id=":principal6_5" function="internal">
        <lane id=":principal6_5_0" index="0" disallow="pedestrian" speed="6.68" length="8.66" shape="272.73,0.64 272.92,0.14 274.47,-0.82 277.07,-1.41 280.70,-1.60"/>
    </edge>
    <edge id=":principal6_6" function="internal">
        <lane id=":principal6_6_0" index="0" disallow="pedestrian" speed="3.65" length="3.70" shape="272.94,0.69 273.20,0.30 274.00,-0.10 274.80,0.30 275.60,1.50"/>
    </edge>
    <edge id=":principal6_2" function="internal">
        <lane id=":principal6_2_0" index="0" speed="13.89" length="13.40" shape="267.30,-4.80 280.70,-4.80"/>
        <lane id=":principal6_2_1" index="1" speed="13.89" length="13.40" shape="267.30,-1.60 280.70,-1.60"/>
    </edge>
    <edge id=":principal6_4" function="internal">
        <lane id=":principal6_4_0" index="0" disallow="pedestrian" speed="6.68" length="9.58" shape="267.30,-1.60 270.93,-1.41 273.52,-0.83 275.08,0.14 275.60,1.50"/>
    </edge>
    <edge id=":principal7_0" function="internal">
        <lane id=":principal7_0_0" index="0" disallow="pedestrian" speed="6.68" length="0.92" shape="301.40,1.50 301.73,0.64"/>
    </edge>
    <edge id=":principal7_1" function="internal">
        <lane id=":principal7_1_0" index="0" disallow="pedestrian" speed="3.65" length="0.97" shape="301.40,1.50 301.94,0.69"/>
    </edge>
    <edge id=":principal7_5" function="internal">
        <lane id=":principal7_5_0" index="0" disallow="pedestrian" speed="6.68" length="8.66" shape="301.73,0.64 301.92,0.14 303.47,-0.82 306.07,-1.41 309.70,-1.60"/>
    </edge>
    <edge id=":principal7_6" function="internal">
        <lane id=":principal7_6_0" index="0" disallow="pedestrian" speed="3.65" length="3.70" shape="301.94,0.69 302.20,0.30 303.00,-0.10 303.80,0.30 304.60,1.50"/>
    </edge>
    <edge id=":principal7_2" function="internal">
        <lane id=":principal7_2_0" index="0" speed="13.89" length="13.40" shape="296.30,-4.80 309.70,-4.80"/>
        <lane id=":principal7_2_1" index="1" speed="13.89" length="13.40" shape="296.30,-1.60 309.70,-1.60"/>
    </edge>
    <edge id=":principal7_4" function="internal">
        <lane id=":principal7_4_0" index="0" disallow="pedestrian" speed="6.68" length="9.58" shape="296.30,-1.60 299.93,-1.41 302.52,-0.83 304.08,0.14 304.60,1.50"/>
    </edge>
    <edge id=":principal8_0" function="internal">
        <lane id=":principal8_0_0" index="0" disallow="pedestrian" speed="6.68" length="0.92" shape="330.40,1.50 330.73,0.64"/>
    </edge>
    <edge id=":principal8_1" function="internal">
        <lane id=":principal8_1_0" index="0" disallow="pedestrian" speed="3.65" length="0.97" shape="330.40,1.50 330.94,0.69"/>
    </edge>
    <edge id=":principal8_5" function="internal">
        <lane id=":principal8_5_0" index="0" disallow="pedestrian" speed="6.68" length="8.66" shape="330.73,0.64 330.92,0.14 332.47,-0.82 335.07,-1.41 338.70,-1.60"/>
    </edge>
    <edge id=":principal8_6" function="internal">
        <lane id=":principal8_6_0" index="0" disallow="pedestrian" speed="3.65" length="3.70" shape="330.94,0.69 331.20,0.30 332.00,-0.10 332.80,0.30 333.60,1.50"/>
    </edge>
    <edge id=":principal8_2" function="internal">
        <lane id=":principal8_2_0" index="0" speed="13.89" length="13.40" shape="325.30,-4.80 338.70,-4.80"/>
        <lane id=":principal8_2_1" index="1" speed="13.89" length="13.40" shape="325.30,-1.60 338.70,-1.60"/>
    </edge>
    <edge id=":principal8_4" function="internal">
        <lane id=":principal8_4_0" index="0" disallow="pedestrian" speed="6.68" length="9.58" shape="325.30,-1.60 328.93,-1.41 331.52,-0.83 333.08,0.14 333.60,1.50"/>
    </edge>
    <edge id=":principal9_0" function="internal">
        <lane id=":principal9_0_0" index="0" disallow="pedestrian" speed="6.68" length="0.92" shape="359.40,1.50 359.73,0.64"/>
    </edge>
    <edge id=":principal9_1" function="internal">
        <lane id=":principal9_1_0" index="0" disallow="pedestrian" speed="3.65" length="0.97" shape="359.40,1.50 359.94,0.69"/>
    </edge>
    <edge id=":principal9_5" function="internal">
        <lane id=":principal9_5_0" index="0" disallow="pedestrian" speed="6.68" length="8.66" shape="359.73,0.64 359.92,0.14 361.47,-0.82 364.07,-1.41 367.70,-1.60"/>
    </edge>
    <edge id=":principal9_6" function="internal">
        <lane id=":principal9_6_0" index="0" disallow="pedestrian" speed="3.65" length="3.70" shape="359.94,0.69 360.20,0.30 361.00,-0.10 361.80,0.30 362.60,1.50"/>
    </edge>
    <edge id=":principal9_2" function="internal">
        <lane id=":principal9_2_0" index="0" speed="13.89" length="13.40" shape="354.30,-4.80 367.70,-4.80"/>
        <lane id=":principal9_2_1" index="1" speed="13.89" length="13.40" shape="354.30,-1.60 367.70,-1.60"/>
    </edge>
    <edge id=":principal9_4" function="internal">
        <lane id=":principal9_4_0" index="0" disallow="pedestrian" speed="6.68" length="9.58" shape="354.30,-1.60 357.93,-1.41 360.52,-0.83 362.08,0.14 362.60,1.50"/>
    </edge>
    <edge id=":secundaria0_0" function="internal">
        <lane id=":secundaria0_0_0" index="0" disallow="pedestrian" speed="5.99" length="7.49" shape="101.60,156.60 101.95,158.17 103.00,159.30 104.75,159.97 107.20,160.20"/>
    </edge>
    <edge id=":secundaria0_1" function="internal">
        <lane id=":secundaria0_1_0" index="0" disallow="pedestrian" speed="3.65" length="2.66" shape="101.60,156.60 100.80,157.80 100.00,158.20 99.72,158.06"/>
    </edge>
    <edge id=":secundaria0_5" function="internal">
        <lane id=":secundaria0_5_0" index="0" disallow="pedestrian" speed="3.65" length="2.02" shape="99.72,158.06 99.20,157.80 98.40,156.60"/>
    </edge>
    <edge id=":secundaria0_2" function="internal">
        <lane id=":secundaria0_2_0" index="0" disallow="pedestrian" speed="5.99" length="7.49" shape="92.80,160.20 95.25,159.97 97.00,159.30 98.05,158.17 98.40,156.60"/>
    </edge>
    <edge id=":secundaria0_3" function="internal">
        <lane id=":secundaria0_3_0" index="0" speed="13.89" length="14.40" shape="92.80,160.20 107.20,160.20"/>
        <lane id=":secundaria0_3_1" index="1" speed="13.89" length="14.40" shape="92.80,163.40 107.20,163.40"/>
    </edge>
    <edge id=":secundaria1_0" function="internal">
        <lane id=":secundaria1_0_0" index="0" disallow="pedestrian" speed="5.99" length="7.49" shape="130.60,156.60 130.95,158.17 132.00,159.30 133.75,159.97 136.20,160.20"/>
    </edge>
    <edge id=":secundaria1_1" function="internal">
        <lane id=":secundaria1_1_0" index="0" disallow="pedestrian" speed="3.65" length="2.66" shape="130.60,156.60 129.80,157.80 129.00,158.20 128.72,158.06"/>
    </edge>
    <edge id=":secundaria1_5" function="internal">
        <lane id=":secundaria1_5_0" index="0" disallow="pedestrian" speed="3.65" length="2.02" shape="128.72,158.06 128.20,157.80 127.40,156.60"/>
    </edge>
    <edge id=":secundaria1_2" function="internal">
        <lane id=":secundaria1_2_0" index="0" disallow="pedestrian" speed="5.99" length="7.49" shape="121.80,160.20 124.25,159.97 126.00,159.30 127.05,158.17 127.40,156.60"/>
    </edge>
    <edge id=":secundaria1_3" function="internal">
        <lane id=":secundaria1_3_0" index="0" speed="13.89" length="14.40" shape="121.80,160.20 136.20,160.20"/>
        <lane id=":secundaria1_3_1" index="1" speed="13.89" length="14.40" shape="121.80,163.40 136.20,163.40"/>
    </edge>
    <edge id=":secundaria10_0" function="internal">
        <lane id=":secundaria10_0_0" index="0" disallow="pedestrian" speed="5.99" length="7.49" shape="391.60,156.60 391.95,158.17 393.00,159.30 394.75,159.97 397.20,160.20"/>
    </edge>
    <edge id=":secundaria10_1" function="internal">
        <lane id=":secundaria10_1_0" index="0" disallow="pedestrian" speed="3.65" length="2.66" shape="391.60,156.60 390.80,157.80 390.00,158.20 389.72,158.06"/>
    </edge>
    <edge id=":secundaria10_5" function="internal">
        <lane id=":secundaria10_5_0" index="0" disallow="pedestrian" speed="3.65" length="2.02" shape="389.72,158.06 389.20,157.80 388.40,156.60"/>
    </edge>
    <edge id=":secundaria10_2" function="internal">
        <lane id=":secundaria10_2_0" index="0" disallow="pedestrian" speed="5.99" length="7.49" shape="382.80,160.20 385.25,159.97 387.00,159.30 388.05,158.17 388.40,156.60"/>
    </edge>
    <edge id=":secundaria10_3" function="internal">
        <lane id=":secundaria10_3_0" index="0" speed="13.89" length="14.40" shape="382.80,160.20 397.20,160.20"/>
        <lane id=":secundaria10_3_1" index="1" speed="13.89" length="14.40" shape="382.80,163.40 397.20,163.40"/>
    </edge>
    <edge id=":secundaria11_0" function="internal">
        <lane id=":secundaria11_0_0" index="0" disallow="pedestrian" speed="5.99" length="7.49" shape="420.60,156.60 420.95,158.17 422.00,159.30 423.75,159.97 426.20,160.20"/>
    </edge>
    <edge id=":secundaria11_1" function="internal">
        <lane id=":secundaria11_1_0" index="0" disallow="pedestrian" speed="3.65" length="2.66" shape="420.60,156.60 419.80,157.80 419.00,158.20 418.72,158.06"/>
    </edge>
    <edge id=":secundaria11_5" function="internal">
        <lane id=":secundaria11_5_0" index="0" disallow="pedestrian" speed="3.65" length="2.02" shape="418.72,158.06 418.20,157.80 417.40,156.60"/>
    </edge>
    <edge id=":secundaria11_2" function="internal">
        <lane id=":secundaria11_2_0" index="0" disallow="pedestrian" speed="5.99" length="7.49" shape="411.80,160.20 414.25,159.97 416.00,159.30 417.05,158.17 417.40,156.60"/>
    </edge>
    <edge id=":secundaria11_3" function="internal">
        <lane id=":secundaria11_3_0" index="0" speed="13.89" length="14.40" shape="411.80,160.20 426.20,160.20"/>
        <lane id=":secundaria11_3_1" index="1" speed="13.89" length="14.40" shape="411.80,163.40 426.20,163.40"/>
    </edge>
    <edge id=":secundaria12_0" function="internal">
        <lane id=":secundaria12_0_0" index="0" disallow="pedestrian" speed="5.99" length="7.49" shape="449.60,156.60 449.95,158.17 451.00,159.30 452.75,159.97 455.20,160.20"/>
    </edge>
    <edge id=":secundaria12_1" function="internal">
        <lane id=":secundaria12_1_0" index="0" disallow="pedestrian" speed="3.65" length="2.66" shape="449.60,156.60 448.80,157.80 448.00,158.20 447.72,158.06"/>
    </edge>
    <edge id=":secundaria12_5" function="internal">
        <lane id=":secundaria12_5_0" index="0" disallow="pedestrian" speed="3.65" length="2.02" shape="447.72,158.06 447.20,157.80 446.40,156.60"/>
    </edge>
    <edge id=":secundaria12_2" function="internal">
        <lane id=":secundaria12_2_0" index="0" disallow="pedestrian" speed="5.99" length="7.49" shape="440.80,160.20 443.25,159.97 445.00,159.30 446.05,158.17 446.40,156.60"/>
    </edge>
    <edge id=":secundaria12_3" function="internal">
        <lane id=":secundaria12_3_0" index="0" speed="13.89" length="14.40" shape="440.80,160.20 455.20,160.20"/>
        <lane id=":secundaria12_3_1" index="1" speed="13.89" length="14.40" shape="440.80,163.40 455.20,163.40"/>
    </edge>
    <edge id=":secundaria13_0" function="internal">
        <lane id=":secundaria13_0_0" index="0" disallow="pedestrian" speed="5.99" length="7.49" shape="478.60,156.60 478.95,158.17 480.00,159.30 481.75,159.97 484.20,160.20"/>
    </edge>
    <edge id=":secundaria13_1" function="internal">
        <lane id=":secundaria13_1_0" index="0" disallow="pedestrian" speed="3.65" length="2.66" shape="478.60,156.60 477.80,157.80 477.00,158.20 476.72,158.06"/>
    </edge>
    <edge id=":secundaria13_5" function="internal">
        <lane id=":secundaria13_5_0" index="0" disallow="pedestrian" speed="3.65" length="2.02" shape="476.72,158.06 476.20,157.80 475.40,156.60"/>
    </edge>
    <edge id=":secundaria13_2" function="internal">
        <lane id=":secundaria13_2_0" index="0" disallow="pedestrian" speed="5.99" length="7.49" shape="469.80,160.20 472.25,159.97 474.00,159.30 475.05,158.17 475.40,156.60"/>
    </edge>
    <edge id=":secundaria13_3" function="internal">
        <lane id=":secundaria13_3_0" index="0" speed="13.89" length="14.40" shape="469.80,160.20 484.20,160.20"/>
        <lane id=":secundaria13_3_1" index="1" speed="13.89" length="14.40" shape="469.80,163.40 484.20,163.40"/>
    </edge>
    <edge id=":secundaria14_0" function="internal">
        <lane id=":secundaria14_0_0" index="0" disallow="pedestrian" speed="5.99" length="7.49" shape="507.60,156.60 507.95,158.17 509.00,159.30 510.75,159.97 513.20,160.20"/>
    </edge>
    <edge id=":secundaria14_1" function="internal">
        <lane id=":secundaria14_1_0" index="0" disallow="pedestrian" speed="3.65" length="2.66" shape="507.60,156.60 506.80,157.80 506.00,158.20 505.72,158.06"/>
    </edge>
    <edge id=":secundaria14_5" function="internal">
        <lane id=":secundaria14_5_0" index="0" disallow="pedestrian" speed="3.65" length="2.02" shape="505.72,158.06 505.20,157.80 504.40,156.60"/>
    </edge>
    <edge id=":secundaria14_2" function="internal">
        <lane id=":secundaria14_2_0" index="0" disallow="pedestrian" speed="5.99" length="7.49" shape="498.80,160.20 501.25,159.97 503.00,159.30 504.05,158.17 504.40,156.60"/>
    </edge>
    <edge id=":secundaria14_3" function="internal">
        <lane id=":secundaria14_3_0" index="0" speed="13.89" length="14.40" shape="498.80,160.20 513.20,160.20"/>
        <lane id=":secundaria14_3_1" index="1" speed="13.89" length="14.40" shape="498.80,163.40 513.20,163.40"/>
    </edge>
    <edge id=":secundaria2_0" function="internal">
        <lane id=":secundaria2_0_0" index="0" disallow="pedestrian" speed="5.99" length="7.49" shape="159.60,156.60 159.95,158.17 161.00,159.30 162.75,159.97 165.20,160.20"/>
    </edge>
    <edge id=":secundaria2_1" function="internal">