<?xml version="1.0" encoding="UTF-8"?>
<!-- generated on 2024-11-06 17:16:04.241201 by createNet.py UNKNOWN
  options: 
-->
<edges xmlns:xsi="http://www.w3.org/2001/XMLSchema-instance" xsi:noNamespaceSchemaLocation="http://sumo.dlr.de/xsd/edges_file.xsd">
<edge id="principalin" from="principalentrada" to="principal0" numLanes="2"/>
<edge id="principal0to1" from="principal0" to="principal1" numLanes="2"/>
<edge id="principal1to2" from="principal1" to="principal2" numLanes="2"/>
<edge id="principal2to3" from="principal2" to="principal3" numLanes="2"/>
<edge id="principal3to4" from="principal3" to="principal4" numLanes="2"/>
<edge id="principal4to5" from="principal4" to="principal5" numLanes="2"/>
<edge id="principal5to6" from="principal5" to="principal6" numLanes="2"/>
<edge id="principal6to7" from="principal6" to="principal7" numLanes="2"/>
<edge id="principal7to8" from="principal7" to="principal8" numLanes="2"/>
<edge id="principal8to9" from="principal8" to="principal9" numLanes="2"/>
<edge id="principal9to10" from="principal9" to="principal10" numLanes="2"/>
<edge id="principal10to11" from="principal10" to="principal11" numLanes="2"/>
<edge id="principal11to12" from="principal11" to="principal12" numLanes="2"/>
<edge id="principal12to13" from="principal12" to="principal13" numLanes="2"/>
<edge id="principal13to14" from="principal13" to="principal14" numLanes="2"/>
<edge id="principalout" from="principal14" to="principalsaida" numLanes="2"/>
<edge id="secundariain" from="secundariaentrada" to="secundaria0" numLanes="2"/>
<edge id="secundaria0to1" from="secundaria0" to="secundaria1" numLanes="2"/>
<edge id="secundaria1to2" from="secundaria1" to="secundaria2" numLanes="2"/>
<edge id="secundaria2to3" from="secundaria2" to="secundaria3" numLanes="2"/>
<edge id="secundaria3to4" from="secundaria3" to="secundaria4" numLanes="2"/>
<edge id="secundaria4to5" from="secundaria4" to="secundaria5" numLanes="2"/>
<edge id="secundaria5to6" from="secundaria5" to="secundaria6" numLanes="2"/>
<edge id="secundaria6to7" from="secundaria6" to="secundaria7" numLanes="2"/>
<edge id="secundaria7to8" from="secundaria7" to="secundaria8" numLanes="2"/>
<edge id="secundaria8to9" from="secundaria8" to="secundaria9" numLanes="2"/>
<edge id="secundaria9to10" from="secundaria9" to="secundaria10" numLanes="2"/>
<edge id="secundaria10to11" from="secundaria10" to="secundaria11" numLanes="2"/>
<edge id="secundaria11to12" from="secundaria11" to="secundaria12" numLanes="2"/>
<edge id="secundaria12to13" from="secundaria12" to="secundaria13" numLanes="2"/>
<edge id="secundaria13to14" from="secundaria13" to="secundaria14" numLanes="2"/>
<edge id="secundariaout" from="secundaria14" to="secundariasaida" numLanes="2"/>
<edge id="road0" from="principal0" to="secundaria0" numLanes="2">
    <lane index="0" allow="pedestrian" width="2.00"/>
    <lane index="1" disallow="pedestrian"/>
</edge>
<edge id="-road0" from="secundaria0" to="principal0" numLanes="2">
    <lane index="0" allow="pedestrian" width="2.00"/>
    <lane index="1" disallow="pedestrian"/>
</edge>
<edge id="road1" from="principal1" to="secundaria1" numLanes="2">
    <lane index="0" allow="pedestrian" width="2.00"/>
    <lane index="1" disallow="pedestrian"/>
</edge>
<edge id="-road1" from="secundaria1" to="principal1" numLanes="2">
    <lane index="0" allow="pedestrian" width="2.00"/>
    <lane index="1" disallow="pedestrian"/>
</edge>
<edge id="road2" from="principal2" to="secundaria2" numLanes="2">
    <lane index="0" allow="pedestrian" width="2.00"/>
    <lane index="1" disallow="pedestrian"/>
</edge>
<edge id="-road2" from="secundaria2" to="principal2" numLanes="2">
    <lane index="0" allow="pedestrian" width="2.00"/>
    <lane index="1" disallow="pedestrian"/>
</edge>
<edge id="road3" from="principal3" to="secundaria3" numLanes="2">
    <lane index="0" allow="pedestrian" width="2.00"/>
    <lane index="1" disallow="pedestrian"/>
</edge>
<edge id="-road3" from="secundaria3" to="principal3" numLanes="2">
    <lane index="0" allow="pedestrian" width="2.00"/>
    <lane index="1" disallow="pedestrian"/>
</edge>
<edge id="road4" from="principal4" to="secundaria4" numLanes="2">
    <lane index="0" allow="pedestrian" width="2.00"/>
    <lane index="1" disallow="pedestrian"/>
</edge>
<edge id="-road4" from="secundaria4" to="principal4" numLanes="2">
    <lane index="0" allow="pedestrian" width="2.00"/>
    <lane index="1" disallow="pedestrian"/>
</edge>
<edge id="road5" from="principal5" to="secundaria5" numLanes="2">
    <lane index="0" allow="pedestrian" width="2.00"/>
    <lane index="1" disallow="pedestrian"/>
</edge>
<edge id="-road5" from="secundaria5" to="principal5" numLanes="2">
    <lane index="0" allow="pedestrian" width="2.00"/>
    <lane index="1" disallow="pedestrian"/>
</edge>
<edge id="road6" from="principal6" to="secundaria6" numLanes="2">
    <lane index="0" allow="pedestrian" width="2.00"/>
    <lane index="1" disallow="pedestrian"/>
</edge>
<edge id="-road6" from="secundaria6" to="principal6" numLanes="2">
    <lane index="0" allow="pedestrian" width="2.00"/>
    <lane index="1" disallow="pedestrian"/>
</edge>
<edge id="road7" from="principal7" to="secundaria7" numLanes="2">
    <lane index="0" allow="pedestrian" width="2.00"/>
    <lane index="1" disallow="pedestrian"/>
</edge>
<edge id="-road7" from="secundaria7" to="principal7" numLanes="2">
    <lane index="0" allow="pedestrian" width="2.00"/>
    <lane index="1" disallow="pedestrian"/>
</edge>
<edge id="road8" from="principal8" to="secundaria8" numLanes="2">
    <lane index="0" allow="pedestrian" width="2.00"/>
    <lane index="1" disallow="pedestrian"/>
</edge>
<edge id="-road8" from="secundaria8" to="principal8" numLanes="2">
    <lane index="0" allow="pedestrian" width="2.00"/>
    <lane index="1" disallow="pedestrian"/>
</edge>
<edge id="road9" from="principal9" to="secundaria9" numLanes="2">
    <lane index="0" allow="pedestrian" width="2.00"/>
    <lane index="1" disallow="pedestrian"/>
</edge>
<edge id="-road9" from="secundaria9" to="principal9" numLanes="2">
    <lane index="0" allow="pedestrian" width="2.00"/>
    <lane index="1" disallow="pedestrian"/>
</edge>
<edge id="road10" from="principal10" to="secundaria10" numLanes="2">
    <lane index="0" allow="pedestrian" width="2.00"/>
    <lane index="1" disallow="pedestrian"/>
</edge>
<edge id="-road10" from="secundaria10" to="principal10" numLanes="2">
    <lane index="0" allow="pedestrian" width="2.00"/>
    <lane index="1" disallow="pedestrian"/>
</edge>
<edge id="road11" from="principal11" to="secundaria11" numLanes="2">
    <lane index="0" allow="pedestrian" width="2.00"/>
    <lane index="1" disallow="pedestrian"/>
</edge>
<edge id="-road11" from="secundaria11" to="principal11" numLanes="2">
    <lane index="0" allow="pedestrian" width="2.00"/>
    <lane index="1" disallow="pedestrian"/>
</edge>
<edge id="road12" from="principal12" to="secundaria12" numLanes="2">
    <lane index="0" allow="pedestrian" width="2.00"/>
    <lane index="1" disallow="pedestrian"/>
</edge>
<edge id="-road12" from="secundaria12" to="principal12" numLanes="2">
    <lane index="0" allow="pedestrian" width="2.00"/>
    <lane index="1" disallow="pedestrian"/>
</edge>
<edge id="road13" from="principal13" to="secundaria13" numLanes="2">
    <lane index="0" allow="pedestrian" width="2.00"/>
    <lane index="1" disallow="pedestrian"/>
</edge>
<edge id="-road13" from="secundaria13" to="principal13" numLanes="2">
    <lane index="0" allow="pedestrian" width="2.00"/>
    <lane index="1" disallow="pedestrian"/>
</edge>
<edge id="road14" from="principal14" to="secundaria14" numLanes="2">
    <lane index="0" allow="pedestrian" width="2.00"/>
    <lane index="1" disallow="pedestrian"/>
</edge>
<edge id="-road14" from="secundaria14" to="principal14" numLanes="2">
    <lane index="0" allow="pedestrian" width="2.00"/>
    <lane index="1" disallow="pedestrian"/>
</edge>
</edges>
