<?xml version="1.0" encoding="UTF-8"?>
<!-- generated on 2024-11-06 17:16:04.351652 by createNet.py UNKNOWN
  options: 
-->
<additional xmlns:xsi="http://www.w3.org/2001/XMLSchema-instance" xsi:noNamespaceSchemaLocation="http://sumo.dlr.de/xsd/additional_file.xsd">
	<parkingArea id="ParkArea0" lane="road0_1" roadsideCapacity="30" angle="270" length="8"/>
	<parkingArea id="ParkArea-0" lane="-road0_1" roadsideCapacity="30" angle="270" length="8"/>
	<parkingArea id="ParkArea1" lane="road1_1" roadsideCapacity="30" angle="270" length="8"/>
	<parkingArea id="ParkArea-1" lane="-road1_1" roadsideCapacity="30" angle="270" length="8"/>
	<parkingArea id="ParkArea2" lane="road2_1" roadsideCapacity="30" angle="270" length="8"/>
	<parkingArea id="ParkArea-2" lane="-road2_1" roadsideCapacity="30" angle="270" length="8"/>
	<parkingArea id="ParkArea3" lane="road3_1" roadsideCapacity="30" angle="270" length="8"/>
	<parkingArea id="ParkArea-3" lane="-road3_1" roadsideCapacity="30" angle="270" length="8"/>
	<parkingArea id="ParkArea4" lane="road4_1" roadsideCapacity="30" angle="270" length="8"/>
	<parkingArea id="ParkArea-4" lane="-road4_1" roadsideCapacity="30" angle="270" length="8"/>
	<parkingArea id="ParkArea5" lane="road5_1" roadsideCapacity="30" angle="270" length="8"/>
	<parkingArea id="ParkArea-5" lane="-road5_1" roadsideCapacity="30" angle="270" length="8"/>
	<parkingArea id="ParkArea6" lane="road6_1" roadsideCapacity="30" angle="270" length="8"/>
	<parkingArea id="ParkArea-6" lane="-road6_1" roadsideCapacity="30" angle="270" length="8"/>
	<parkingArea id="ParkArea7" lane="road7_1" roadsideCapacity="30" angle="270" length="8"/>
	<parkingArea id="ParkArea-7" lane="-road7_1" roadsideCapacity="30" angle="270" length="8"/>
	<parkingArea id="ParkArea8" lane="road8_1" roadsideCapacity="30" angle="270" length="8"/>
	<parkingArea id="ParkArea-8" lane="-road8_1" roadsideCapacity="30" angle="270" length="8"/>
	<parkingArea id="ParkArea9" lane="road9_1" roadsideCapacity="30" angle="270" length="8"/>
	<parkingArea id="ParkArea-9" lane="-road9_1" roadsideCapacity="30" angle="270" length="8"/>
	<parkingArea id="ParkArea10" lane="road10_1" roadsideCapacity="30" angle="270" length="8"/>
	<parkingArea id="ParkArea-10" lane="-road10_1" roadsideCapacity="30" angle="270" length="8"/>
	<parkingArea id="ParkArea11" lane="road11_1" roadsideCapacity="30" angle="270" length="8"/>
	<parkingArea id="ParkArea-11" lane="-road11_1" roadsideCapacity="30" angle="270" length="8"/>
	<parkingArea id="ParkArea12" lane="road12_1" roadsideCapacity="30" angle="270" length="8"/>
	<parkingArea id="ParkArea-12" lane="-road12_1" roadsideCapacity="30" angle="270" length="8"/>
	<parkingArea id="ParkArea13" lane="road13_1" roadsideCapacity="30" angle="270" length="8"/>
	<parkingArea id="ParkArea-13" lane="-road13_1" roadsideCapacity="30" angle="270" length="8"/>
	<parkingArea id="ParkArea14" lane="road14_1" roadsideCapacity="30" angle="270" length="8"/>
	<parkingArea id="ParkArea-14" lane="-road14_1" roadsideCapacity="30" angle="270" length="8"/>
	<vType id="car" color="0.7,0.7,0.7" /> 
	<vType id="ped_pedestrian" color="1,0.2,0.2" vClass="pedestrian"/> 
</additional>
